/*--------------------------------*- C++ -*----------------------------------*\
| =========                 |                                                 |
| \\      /  F ield         | foam-extend: Open Source CFD                    |
|  \\    /   O peration     | Version:     3.1                                |
|   \\  /    A nd           | Web:         http://www.extend-project.de       |
|    \\/     M anipulation  |                                                 |
\*---------------------------------------------------------------------------*/
FoamFile
{
    version     2.0;
    format      ascii;
    class       dictionary;
    object      fvSolution;
}
// * * * * * * * * * * * * * * * * * * * * * * * * * * * * * * * * * * * * * //

solvers
{
    blockT
    {
        solver           GaussSeidel;
        //solver           AMG;
        //solver           BiCGStab;
        preconditioner   Cholesky;
        
        // GaussSeidel stuff
        nSweeps			4;
        
        // AMG stuff
        cycle			V-cycle;
        nPreSweeps		1;
        nPostSweeps		2;
        nMaxLevels		4;
        scale			2;
        coarseningType	AAMG;
        groupSize		1;
        minCoarseEqns	1;
        smoother		GaussSeidel;
        norm			maxNorm;

        tolerance        1e-09;
        relTol           0.01;

        minIter          1;
        maxIter          1000;
    }
}

SIMPLE
{
    nNonOrthogonalCorrectors 1;
}

relaxationFactors
{
    T    0.9;
    Ts   0.9;
}

// ************************************************************************* //
